
**** 06/06/16 20:51:10 ********* PSpice 9.2 (Mar 2000) ******** ID# 0 ********

 * E:\2-1\EEE 210\Schematics\main.sch


 ****     CIRCUIT DESCRIPTION


******************************************************************************




* Schematics Version 9.2
* Mon Jun 06 20:51:10 2016



** Analysis setup **
.tran 1ns 5m 0 1u
.OP 


* From [PSPICE NETLIST] section of C:\Program Files\Orcad\PSpice\PSpice.ini:
.lib "nom.lib"

.INC "main.net"



**** INCLUDING main.net ****
* Schematics Netlist *



R_R5         0 $N_0001  10k  
R_R4         $N_0001 $N_0002  10k  
R_R7         0 $N_0003  10k  
C_C5         $N_0004 $N_0005  0.002u  
C_C4         $N_0001 $N_0006  1u  
I_I1         0 $N_0007 DC 0A  
I_I2         0 $N_0008 DC 0A  
V_V3         $N_0002 0 5
V_V2         $N_0006 0  
+SIN 0 1 1k 0 0 0
X_U2         $N_0007 $N_0013 $N_0012 $N_0011 $N_0008 $N_0001 $N_0003 $N_0010
+  $N_0004 $N_0005 $N_0014 $N_0015 0 $N_0009 $N_0002 0 $G_DPWR $G_DGND CD4046
+  PARAMS: MNTYMXDLY=0 IO_LEVEL=0 Rin=0.3Meg S1=1 S2=0.5 M1=0.5 M2=1.0 Vx=10 Kb=1
+  Vfree=0.0 Kc=-0.1 Vt=1.2 Vxqr=10
R_R15         0 $N_0016  10k  
R_R16         0 $N_0017  100k  
C_C8         $N_0018 $N_0019  0.002u  
R_R17         $N_0021 $N_0020  10k  
C_C9         $N_0020 0  0.01u  
R_R19         $N_0023 $N_0022  10k  
C_C10         0 $N_0023  0.01u  
V_V4         $N_0024 0 5
C_C13         $N_0025 $N_0023  0.01u  
R_R29         0 $N_0026  1Meg  
V_V8         0 $N_0027 15
V_V9         $N_0028 0 15
X_U3         $N_0014 $N_0032 $N_0021 $N_0031 $N_0029 $N_0020 $N_0016 $N_0017
+  $N_0018 $N_0019 $N_0029 $N_0022 0 $N_0030 $N_0024 0 $G_DPWR $G_DGND CD4046
+  PARAMS: MNTYMXDLY=0 IO_LEVEL=0 Rin=0.3Meg S1=1 S2=0.5 M1=0.5 M2=1.0 Vx=10 Kb=1
+  Vfree=0.0 Kc=-0.1 Vt=1.2 Vxqr=10
X_U5         $N_0025 $N_0026 $N_0028 $N_0027 $N_0033 uA741
R_R6         0 $N_0010  100k  
R_R18         0 $N_0022  10k  
R_R25         0 $N_0025  20k  
R_R30         $N_0026 $N_0033  .84Meg  

**** RESUMING main.cir ****
.PROBE V(*) I(*) W(*) D(*) NOISE(*) 


.END


**** Generated AtoD and DtoA Interfaces ****

*
* Analog/Digital interface for node $N_0007
*
* Moving X_U2.U1:IN1 from analog node $N_0007 to new digital node $N_0007$AtoD
X$$N_0007_AtoD1
+ $N_0007
+ $N_0007$AtoD
+ $G_DPWR
+ $G_DGND
+ AtoD_HCT
+       PARAMS: CAPACITANCE=   0     
*
* Analog/Digital interface for node $N_0008
*
* Moving X_U2.U1:IN2 from analog node $N_0008 to new digital node $N_0008$AtoD
X$$N_0008_AtoD1
+ $N_0008
+ $N_0008$AtoD
+ $G_DPWR
+ $G_DGND
+ AtoD_HCT
+       PARAMS: CAPACITANCE=   0     
*
* Analog/Digital interface for node $N_0021
*
* Moving X_U3.U12:OUT2 from analog node $N_0021 to new digital node $N_0021$DtoA
X$$N_0021_DtoA1
+ $N_0021$DtoA
+ $N_0021
+ $G_DPWR
+ $G_DGND
+ DtoA_HC
+       PARAMS: DRVH=  87     DRVL=  87     CAPACITANCE=   0     
*
* Analog/Digital interface for node X_U2.s1
*
* Moving X_U2.U7:OUT1 from analog node X_U2.s1 to new digital node X_U2.s1$DtoA
X$X_U2.s1_DtoA1
+ X_U2.s1$DtoA
+ X_U2.s1
+ $G_DPWR
+ $G_DGND
+ DtoA_HC
+       PARAMS: DRVH=  87     DRVL=  87     CAPACITANCE=   0     
*
* Analog/Digital interface for node X_U2.s2
*
* Moving X_U2.U7:OUT2 from analog node X_U2.s2 to new digital node X_U2.s2$DtoA
X$X_U2.s2_DtoA1
+ X_U2.s2$DtoA
+ X_U2.s2
+ $G_DPWR
+ $G_DGND
+ DtoA_HC
+       PARAMS: DRVH=  87     DRVL=  87     CAPACITANCE=   0     
*
* Analog/Digital interface for node X_U2.vcosqr
*
* Moving X_U2.U12:IN3 from analog node X_U2.vcosqr to new digital node X_U2.vcosqr$AtoD
X$X_U2.vcosqr_AtoD1
+ X_U2.vcosqr
+ X_U2.vcosqr$AtoD
+ $G_DPWR
+ $G_DGND
+ AtoD_HCT
+       PARAMS: CAPACITANCE=   0     
*
* Analog/Digital interface for node X_U3.s1
*
* Moving X_U3.U7:OUT1 from analog node X_U3.s1 to new digital node X_U3.s1$DtoA
X$X_U3.s1_DtoA1
+ X_U3.s1$DtoA
+ X_U3.s1
+ $G_DPWR
+ $G_DGND
+ DtoA_HC
+       PARAMS: DRVH=  87     DRVL=  87     CAPACITANCE=   0     
*
* Analog/Digital interface for node X_U3.s2
*
* Moving X_U3.U7:OUT2 from analog node X_U3.s2 to new digital node X_U3.s2$DtoA
X$X_U3.s2_DtoA1
+ X_U3.s2$DtoA
+ X_U3.s2
+ $G_DPWR
+ $G_DGND
+ DtoA_HC
+       PARAMS: DRVH=  87     DRVL=  87     CAPACITANCE=   0     
*
* Analog/Digital interface for node X_U3.vcosqr
*
* Moving X_U3.U12:IN3 from analog node X_U3.vcosqr to new digital node X_U3.vcosqr$AtoD
X$X_U3.vcosqr_AtoD1
+ X_U3.vcosqr
+ X_U3.vcosqr$AtoD
+ $G_DPWR
+ $G_DGND
+ AtoD_HCT
+       PARAMS: CAPACITANCE=   0     
*
* Analog/Digital interface power supply subcircuits
*

X$DIGIFPWR 0 DIGIFPWR

**** 06/06/16 20:51:10 ********* PSpice 9.2 (Mar 2000) ******** ID# 0 ********

 * E:\2-1\EEE 210\Schematics\main.sch


 ****     Diode MODEL PARAMETERS


******************************************************************************




               X_U2.Diode      X_U2.znr        X_U3.Diode      X_U3.znr        
          IS   10.000000E-06    1.004000E-15   10.000000E-06    1.004000E-15 
           N     .1                              .1                          
         ISR                    1.800000E-09                    1.800000E-09 
          BV                    5.2                             5.2          
         IBV                     .027721                         .027721     
         NBV                    1.1779                          1.1779       
        IBVL                    1.164600E-03                    1.164600E-03 
        NBVL                   21.894                          21.894        
          RS    1.000000E-03     .5875          1.000000E-03     .5875       
         CJO   80.000000E-15  160.000000E-12   80.000000E-15  160.000000E-12 
          VJ                     .75                             .75         
           M                     .5484                           .5484       
        TBV1                  176.470000E-06                  176.470000E-06 


               X_U5.dx         X_U5.dy         
          IS  800.000000E-18  800.000000E-18 
          RS    1               1.000000E-03 
         CJO                   10.000000E-12 


**** 06/06/16 20:51:10 ********* PSpice 9.2 (Mar 2000) ******** ID# 0 ********

 * E:\2-1\EEE 210\Schematics\main.sch


 ****     BJT MODEL PARAMETERS


******************************************************************************




               X_U5.qx         
               NPN             
          IS  800.000000E-18 
          BF   93.75         
          NF    1            
          BR    1            
          NR    1            
          CN    2.42         
           D     .87         


**** 06/06/16 20:51:10 ********* PSpice 9.2 (Mar 2000) ******** ID# 0 ********

 * E:\2-1\EEE 210\Schematics\main.sch


 ****     Voltage Controlled Switch MODEL PARAMETERS


******************************************************************************




               X_U2.swt        X_U3.swt        
         RON     .01             .01         
        ROFF    2.000000E+09    2.000000E+09 
         VON    3               3            
        VOFF     .8              .8          


**** 06/06/16 20:51:10 ********* PSpice 9.2 (Mar 2000) ******** ID# 0 ********

 * E:\2-1\EEE 210\Schematics\main.sch


 ****     Digital Input MODEL PARAMETERS


******************************************************************************




               DIN74HC         
        FILE DSO_DTOA        
      FORMAT    6            
    TIMESTEP  100.000000E-12 
      S0NAME 0               
       S0TSW    5.000000E-09 
       S0RLO    1            
       S0RHI  100.000000E+03 
      S1NAME 1               
       S1TSW    5.000000E-09 
       S1RLO  100.000000E+03 
       S1RHI    1            
      S2NAME X               
       S2TSW    5.000000E-09 
       S2RLO  110            
       S2RHI  100            
      S3NAME R               
       S3TSW    5.000000E-09 
       S3RLO  110            
       S3RHI  100            
      S4NAME F               
       S4TSW    5.000000E-09 
       S4RLO  110            
       S4RHI  100            
      S5NAME Z               
       S5TSW    5.000000E-09 
       S5RLO  200.000000E+03 
       S5RHI  200.000000E+03 


**** 06/06/16 20:51:10 ********* PSpice 9.2 (Mar 2000) ******** ID# 0 ********

 * E:\2-1\EEE 210\Schematics\main.sch


 ****     Digital Output MODEL PARAMETERS


******************************************************************************




               DO74HCT         
        FILE DSO_ATOD        
      FORMAT    6            
     CHGONLY    1            
    TIMESTEP  100.000000E-12 
      S0NAME X               
       S0VHI    2            
       S0VLO     .8          
      S1NAME 0               
       S1VHI     .8          
       S1VLO   -1.5          
      S2NAME R               
       S2VHI    1.55         
       S2VLO     .8          
      S3NAME R               
       S3VHI    2            
       S3VLO    1.45         
      S4NAME X               
       S4VHI    2            
       S4VLO     .8          
      S5NAME 1               
       S5VHI    7            
       S5VLO    2            
      S6NAME F               
       S6VHI    2            
       S6VLO    1.45         
      S7NAME F               
       S7VHI    1.55         
       S7VLO     .8          


**** 06/06/16 20:51:10 ********* PSpice 9.2 (Mar 2000) ******** ID# 0 ********

 * E:\2-1\EEE 210\Schematics\main.sch


 ****     Digital Gate MODEL PARAMETERS


******************************************************************************




               X_U2.INVA_TIMING                X_U2.XOR_TIMING 
      TPLHMN    0                               0            
      TPLHTY    0                               0            
      TPLHMX    0                               0            
      TPHLMN    0                               0            
      TPHLTY    0                               0            
      TPHLMX    0                               0            


               X_U2.NAND_TIMING 
      TPLHMN  400.000000E-12 
      TPLHTY    1.000000E-09 
      TPLHMX    1.600000E-09 
      TPHLMN  400.000000E-12 
      TPHLTY    1.000000E-09 
      TPHLMX    1.600000E-09 


               X_U2.BUFA_TIMING                X_U2.AND_TIMING X_U2.NOR_TIMING 
      TPLHMN    0                               0               0            
      TPLHTY    0                               0               0            
      TPLHMX    0                               0               0            
      TPHLMN    0                               0               0            
      TPHLTY    0                               0               0            
      TPHLMX    0                               0               0            


               X_U2.ANDA_TIMING 
      TPLHMN    0            
      TPLHTY    0            
      TPLHMX    0            
      TPHLMN    0            
      TPHLTY    0            
      TPHLMX    0            


               X_U2.BUFB_TIMING 
      TPLHMN    0            
      TPLHTY    0            
      TPLHMX    0            
      TPHLMN    0            
      TPHLTY    0            
      TPHLMX    0            


               X_U3.INVA_TIMING                X_U3.XOR_TIMING 
      TPLHMN    0                               0            
      TPLHTY    0                               0            
      TPLHMX    0                               0            
      TPHLMN    0                               0            
      TPHLTY    0                               0            
      TPHLMX    0                               0            


               X_U3.NAND_TIMING 
      TPLHMN  400.000000E-12 
      TPLHTY    1.000000E-09 
      TPLHMX    1.600000E-09 
      TPHLMN  400.000000E-12 
      TPHLTY    1.000000E-09 
      TPHLMX    1.600000E-09 


               X_U3.BUFA_TIMING                X_U3.AND_TIMING X_U3.NOR_TIMING 
      TPLHMN    0                               0               0            
      TPLHTY    0                               0               0            
      TPLHMX    0                               0               0            
      TPHLMN    0                               0               0            
      TPHLTY    0                               0               0            
      TPHLMX    0                               0               0            


               X_U3.ANDA_TIMING 
      TPLHMN    0            
      TPLHTY    0            
      TPLHMX    0            
      TPHLMN    0            
      TPHLTY    0            
      TPHLMX    0            


               X_U3.BUFB_TIMING 
      TPLHMN    0            
      TPLHTY    0            
      TPLHMX    0            
      TPHLMN    0            
      TPHLTY    0            
      TPHLMX    0            


**** 06/06/16 20:51:10 ********* PSpice 9.2 (Mar 2000) ******** ID# 0 ********

 * E:\2-1\EEE 210\Schematics\main.sch


 ****     Digital Edge Triggered FF MODEL PARAMETERS


******************************************************************************




               X_U2.DFF1_TIMING 
  TPCLKQLHMN    1.600000E-09 
  TPCLKQLHTY    4.000000E-09 
  TPCLKQLHMX    6.400000E-09 
  TPCLKQHLMN    1.600000E-09 
  TPCLKQHLTY    4.000000E-09 
  TPCLKQHLMX    6.400000E-09 
   TPPCQLHMN    1.600000E-09 
   TPPCQLHTY    4.000000E-09 
   TPPCQLHMX    6.400000E-09 
   TPPCQHLMN    1.600000E-09 
   TPPCQHLTY    4.000000E-09 
   TPPCQHLMX    6.400000E-09 
    TWCLKLMN    0            
    TWCLKLTY    0            
    TWCLKLMX    0            
    TWCLKHMN    0            
    TWCLKHTY    0            
    TWCLKHMX    0            
     TWPCLMN    0            
     TWPCLTY    0            
     TWPCLMX    0            
   TSUDCLKMN    0            
   TSUDCLKTY    0            
   TSUDCLKMX    0            
 TSUPCCLKHMN    0            
 TSUPCCLKHTY    0            
 TSUPCCLKHMX    0            
    THDCLKMN    0            
    THDCLKTY    0            
    THDCLKMX    0            
  TSUCECLKMN    0            
  TSUCECLKTY    0            
  TSUCECLKMX    0            
   THCECLKMN    0            
   THCECLKTY    0            
   THCECLKMX    0            


               X_U2.DFF2_TIMING 
  TPCLKQLHMN    2.000000E-09 
  TPCLKQLHTY    5.000000E-09 
  TPCLKQLHMX    8.000000E-09 
  TPCLKQHLMN    2.000000E-09 
  TPCLKQHLTY    5.000000E-09 
  TPCLKQHLMX    8.000000E-09 
   TPPCQLHMN    2.000000E-09 
   TPPCQLHTY    5.000000E-09 
   TPPCQLHMX    8.000000E-09 
   TPPCQHLMN    2.000000E-09 
   TPPCQHLTY    5.000000E-09 
   TPPCQHLMX    8.000000E-09 
    TWCLKLMN    0            
    TWCLKLTY    0            
    TWCLKLMX    0            
    TWCLKHMN    0            
    TWCLKHTY    0            
    TWCLKHMX    0            
     TWPCLMN    0            
     TWPCLTY    0            
     TWPCLMX    0            
   TSUDCLKMN    0            
   TSUDCLKTY    0            
   TSUDCLKMX    0            
 TSUPCCLKHMN    0            
 TSUPCCLKHTY    0            
 TSUPCCLKHMX    0            
    THDCLKMN    0            
    THDCLKTY    0            
    THDCLKMX    0            
  TSUCECLKMN    0            
  TSUCECLKTY    0            
  TSUCECLKMX    0            
   THCECLKMN    0            
   THCECLKTY    0            
   THCECLKMX    0            


               X_U3.DFF1_TIMING 
  TPCLKQLHMN    1.600000E-09 
  TPCLKQLHTY    4.000000E-09 
  TPCLKQLHMX    6.400000E-09 
  TPCLKQHLMN    1.600000E-09 
  TPCLKQHLTY    4.000000E-09 
  TPCLKQHLMX    6.400000E-09 
   TPPCQLHMN    1.600000E-09 
   TPPCQLHTY    4.000000E-09 
   TPPCQLHMX    6.400000E-09 
   TPPCQHLMN    1.600000E-09 
   TPPCQHLTY    4.000000E-09 
   TPPCQHLMX    6.400000E-09 
    TWCLKLMN    0            
    TWCLKLTY    0            
    TWCLKLMX    0            
    TWCLKHMN    0            
    TWCLKHTY    0            
    TWCLKHMX    0            
     TWPCLMN    0            
     TWPCLTY    0            
     TWPCLMX    0            
   TSUDCLKMN    0            
   TSUDCLKTY    0            
   TSUDCLKMX    0            
 TSUPCCLKHMN    0            
 TSUPCCLKHTY    0            
 TSUPCCLKHMX    0            
    THDCLKMN    0            
    THDCLKTY    0            
    THDCLKMX    0            
  TSUCECLKMN    0            
  TSUCECLKTY    0            
  TSUCECLKMX    0            
   THCECLKMN    0            
   THCECLKTY    0            
   THCECLKMX    0            


               X_U3.DFF2_TIMING 
  TPCLKQLHMN    2.000000E-09 
  TPCLKQLHTY    5.000000E-09 
  TPCLKQLHMX    8.000000E-09 
  TPCLKQHLMN    2.000000E-09 
  TPCLKQHLTY    5.000000E-09 
  TPCLKQHLMX    8.000000E-09 
   TPPCQLHMN    2.000000E-09 
   TPPCQLHTY    5.000000E-09 
   TPPCQLHMX    8.000000E-09 
   TPPCQHLMN    2.000000E-09 
   TPPCQHLTY    5.000000E-09 
   TPPCQHLMX    8.000000E-09 
    TWCLKLMN    0            
    TWCLKLTY    0            
    TWCLKLMX    0            
    TWCLKHMN    0            
    TWCLKHTY    0            
    TWCLKHMX    0            
     TWPCLMN    0            
     TWPCLTY    0            
     TWPCLMX    0            
   TSUDCLKMN    0            
   TSUDCLKTY    0            
   TSUDCLKMX    0            
 TSUPCCLKHMN    0            
 TSUPCCLKHTY    0            
 TSUPCCLKHMX    0            
    THDCLKMN    0            
    THDCLKTY    0            
    THDCLKMX    0            
  TSUCECLKMN    0            
  TSUCECLKTY    0            
  TSUCECLKMX    0            
   THCECLKMN    0            
   THCECLKTY    0            
   THCECLKMX    0            


**** 06/06/16 20:51:10 ********* PSpice 9.2 (Mar 2000) ******** ID# 0 ********

 * E:\2-1\EEE 210\Schematics\main.sch


 ****     Digital Delay Line MODEL PARAMETERS


******************************************************************************




               X_U2.DLY_TIMING X_U3.DLY_TIMING 
       DLYMN    0               0            
       DLYTY   12.000000E-09   12.000000E-09 
       DLYMX   12.000000E-09   12.000000E-09 


**** 06/06/16 20:51:10 ********* PSpice 9.2 (Mar 2000) ******** ID# 0 ********

 * E:\2-1\EEE 210\Schematics\main.sch


 ****     Digital IO  MODEL PARAMETERS


******************************************************************************




               IO_HCT          IO_HC_DTOA      
        DRVL   87                            
        DRVH   87                            
       AtoD1 AtoD_HCT                        
       AtoD2 AtoD_HCT_NX                     
       AtoD3 AtoD_HCT                        
       AtoD4 AtoD_HCT_NX                     
       DtoA1 DtoA_HC                         
       DtoA2 DtoA_HC                         
       DtoA3 DtoA_HC                         
       DtoA4 DtoA_HC                         
      TSWHL1    2.742000E-09                 
      TSWHL2    2.742000E-09                 
      TSWHL3    2.742000E-09                 
      TSWHL4    2.742000E-09                 
      TSWLH1    2.758000E-09                 
      TSWLH2    2.758000E-09                 
      TSWLH3    2.758000E-09                 
      TSWLH4    2.758000E-09                 
       TPWRT    3.500000E-09  100.000000E+03 


**** 06/06/16 20:51:10 ********* PSpice 9.2 (Mar 2000) ******** ID# 0 ********

 * E:\2-1\EEE 210\Schematics\main.sch


 ****     SMALL SIGNAL BIAS SOLUTION       TEMPERATURE =   27.000 DEG C


******************************************************************************



 NODE   VOLTAGE     NODE   VOLTAGE     NODE   VOLTAGE     NODE   VOLTAGE


(X_U5.6)-6.043E-06 (X_U5.7)     .0641 (X_U5.8)     .0641 (X_U5.9)    0.0000     

($G_DGND)    0.0000                   ($G_DPWR)    5.0000                       

($N_0001)    2.4590                   ($N_0002)    5.0000                       

($N_0003)    2.4590                   ($N_0004) 5.352E-18                       

($N_0005)    0.0000                   ($N_0006)    0.0000                       

($N_0007)    1.2500                   ($N_0008)    1.2500                       

($N_0009)-261.2E-18                   ($N_0010)    5.0000                       

($N_0013)    2.5000                   ($N_0015)    2.4590                       

($N_0016)     .0022                   ($N_0017)    5.0000                       

($N_0018) 5.352E-18                   ($N_0019)    0.0000                       

($N_0020)     .0022                   ($N_0021)     .0022                       

($N_0022)     .0022                   ($N_0023)     .0022                       

($N_0024)    5.0000                   ($N_0025)    -.0016                       

($N_0026)    -.0016                   ($N_0027)  -15.0000                       

($N_0028)   15.0000                   ($N_0030)-261.2E-18                       

($N_0032)    2.5000                   ($N_0033)     .0641                       

(X_U2.13)   10.0000                   (X_U2.14)  -10.0000                       

(X_U2.s1)     .0022                   (X_U2.s2)     .0022                       

(X_U3.13)   10.0000                   (X_U3.14)  -10.0000                       

(X_U3.s1)     .0022                   (X_U3.s2)     .0022                       

(X_U5.10)    -.6093                   (X_U5.11)   14.9600                       

(X_U5.12)   14.9600                   (X_U5.13)    -.5954                       

(X_U5.14)    -.5954                   (X_U5.53)   14.0000                       

(X_U5.54)  -14.0000                   (X_U5.90) 78.18E-06                       

(X_U5.91)   40.0000                   (X_U5.92)  -40.0000                       

(X_U5.99)    0.0000                   (X_U2.adj)    1.0400                      

(X_U2.ir1)    2.4590                  (X_U2.ir2)    5.0000                      

(X_U2.mix)    2.4590                  (X_U2.off)    1.0000                      

(X_U2.sqr)-53.52E-12                  (X_U3.adj)    1.0400                      

(X_U3.ir1)     .0022                  (X_U3.ir2)    5.0000                      

(X_U3.mix)     .0022                  (X_U3.off)    1.0000                      

(X_U3.sqr)-53.52E-12                  (X_U2.vlim)    2.4590                     

(X_U3.vlim)     .0022                 (X_U2.sqrrc) 601.8E-27                    

(X_U2.trngl) 5.352E-18                (X_U3.sqrrc) 2.136E-24                    

(X_U3.trngl) 5.352E-18                (X_U2.vcosqr)     .1000                   

(X_U3.vcosqr)     .1000               (X$$N_0021_DtoA1.DGND_OL)     .0022       

(X$$N_0021_DtoA1.DPWR_OH)    4.9975   (X$X_U2.s1_DtoA1.DGND_OL)     .0022       

(X$X_U2.s1_DtoA1.DPWR_OH)    4.9975   (X$X_U2.s2_DtoA1.DGND_OL)     .0022       

(X$X_U2.s2_DtoA1.DPWR_OH)    4.9975   (X$X_U3.s1_DtoA1.DGND_OL)     .0022       

(X$X_U3.s1_DtoA1.DPWR_OH)    4.9975   (X$X_U3.s2_DtoA1.DGND_OL)     .0022       

(X$X_U3.s2_DtoA1.DPWR_OH)    4.9975   



 DGTL NODE : STATE  DGTL NODE : STATE  DGTL NODE : STATE  DGTL NODE : STATE


(X_U3.vcosqr$AtoD) : 0                (X_U2.icompin) : X                        

(X_U2.s2$DtoA) : 0                    ($N_0021$DtoA) : 0                        

(X_U2.xorout) : X  (X_U2.fq1) : 0     (X_U2.od2) : 0     ( X_U2.q1) : 0         

(X_U2.qb2) : 1     ( X_U2.q2) : 0     (X_U3.clk1) : 0    (X_U2.s1$DtoA) : 0     

(   $D_HI) : 1     (X_U3.norout) : 1  (X_U2.clk2) : X    ( $N_0031) : 1         

(X_U2.vcosqr$AtoD) : 0                ($N_0007$AtoD) : X                        

(X_U3.xorout) : 0  (X_U3.od1) : 0     (X_U2.fq2) : 0     (X_U2.clr) : 0         

(X_U3.qb1) : 1     (X_U3.od2) : 0     (X_U3.s2$DtoA) : 0                        

(X_U3.qb2) : 1     (X_U3.clk2) : 0    (X_U3.pclr) : 1    ( $N_0011) : 1         

(X_U3.icompin) : 1                    (X_U2.isigin) : X  ( $N_0012) : X         

(X_U2.reset) : 0   ($N_0008$AtoD) : X                    (X_U3.fq1) : 0         

(X_U3.s1$DtoA) : 0                    (X_U3.fq2) : 0     (X_U2.od1) : 0         

(X_U3.reset) : 0   (X_U2.pclr) : 1    (X_U3.clr) : 0     ( $N_0029) : 0         

(X_U2.qb1) : 1     (X_U3.isigin) : 1  ( X_U3.q1) : 0     (X_U2.clk1) : X        

( X_U3.q2) : 0     ( $N_0014) : 0     (X_U2.norout) : 1  




    VOLTAGE SOURCE CURRENTS
    NAME         CURRENT

    V_V3        -2.541E-04
    V_V2         0.000E+00
    V_V4        -1.250E-09
    V_V8        -1.667E-03
    V_V9        -1.667E-03
    X_U2.VR2     5.000E-05
    X_U2.VR1     2.459E-04
    X_U2.Vcext   5.352E-30
    X_U2.Vsqr1  -1.000E-05
    X_U2.Vsqr2   1.000E-05
    X_U3.VR2     5.000E-05
    X_U3.VR1     2.150E-07
    X_U3.Vcext   5.352E-30
    X_U3.Vsqr1  -1.000E-05
    X_U3.Vsqr2   1.000E-05
    X_U5.vb     -6.043E-11
    X_U5.vc      1.394E-11
    X_U5.ve      1.462E-11
    X_U5.vlim    7.818E-08
    X_U5.vlp    -4.000E-11
    X_U5.vln    -4.000E-11
    X$DIGIFPWR.VDPWR  -2.548E-04
    X$DIGIFPWR.VDGND  -5.007E-06

    TOTAL POWER DISSIPATION   5.30E-02  WATTS


**** 06/06/16 20:51:10 ********* PSpice 9.2 (Mar 2000) ******** ID# 0 ********

 * E:\2-1\EEE 210\Schematics\main.sch


 ****     OPERATING POINT INFORMATION      TEMPERATURE =   27.000 DEG C


******************************************************************************






**** VOLTAGE-CONTROLLED CURRENT SOURCES


NAME         X_U2.GIM    X_U3.GIM    X_U5.ga     X_U5.gcm  
I-SOURCE    -1.070E-29  -1.070E-29  -3.571E-09  -3.632E-09

NAME         X$$N_0021_DtoA1.G_OH    X$$N_0021_DtoA1.G_OL  
I-SOURCE     4.995E-05               4.995E-05            

NAME         X$X_U2.s1_DtoA1.G_OH    X$X_U2.s1_DtoA1.G_OL  
I-SOURCE     4.995E-05               4.995E-05            

NAME         X$X_U2.s2_DtoA1.G_OH    X$X_U2.s2_DtoA1.G_OL  
I-SOURCE     4.995E-05               4.995E-05            

NAME         X$X_U3.s1_DtoA1.G_OH    X$X_U3.s1_DtoA1.G_OL  
I-SOURCE     4.995E-05               4.995E-05            

NAME         X$X_U3.s2_DtoA1.G_OH    X$X_U3.s2_DtoA1.G_OL  
I-SOURCE     4.995E-05               4.995E-05            

NAME         X$$N_0007_AtoD1.X1.G_Clamp        
I-SOURCE     1.000E-09                        

NAME         X$$N_0007_AtoD1.X2.G_Clamp        
I-SOURCE     1.000E-09                        

NAME         X$$N_0008_AtoD1.X1.G_Clamp        
I-SOURCE     1.000E-09                        

NAME         X$$N_0008_AtoD1.X2.G_Clamp        
I-SOURCE     1.000E-09                        

NAME         X$$N_0021_DtoA1.X1.G_Clamp        
I-SOURCE     1.000E-09                        

NAME         X$$N_0021_DtoA1.X2.G_Clamp        
I-SOURCE     1.000E-09                        

NAME         X$X_U2.s1_DtoA1.X1.G_Clamp        
I-SOURCE     1.000E-09                        

NAME         X$X_U2.s1_DtoA1.X2.G_Clamp        
I-SOURCE     1.000E-09                        

NAME         X$X_U2.s2_DtoA1.X1.G_Clamp        
I-SOURCE     1.000E-09                        

NAME         X$X_U2.s2_DtoA1.X2.G_Clamp        
I-SOURCE     1.000E-09                        

NAME         X$X_U2.vcosqr_AtoD1.X1.G_Clamp    
I-SOURCE     1.000E-09                        

NAME         X$X_U2.vcosqr_AtoD1.X2.G_Clamp    
I-SOURCE     1.000E-09                        

NAME         X$X_U3.s1_DtoA1.X1.G_Clamp        
I-SOURCE     1.000E-09                        

NAME         X$X_U3.s1_DtoA1.X2.G_Clamp        
I-SOURCE     1.000E-09                        

NAME         X$X_U3.s2_DtoA1.X1.G_Clamp        
I-SOURCE     1.000E-09                        

NAME         X$X_U3.s2_DtoA1.X2.G_Clamp        
I-SOURCE     1.000E-09                        

NAME         X$X_U3.vcosqr_AtoD1.X1.G_Clamp    
I-SOURCE     1.000E-09                        

NAME         X$X_U3.vcosqr_AtoD1.X2.G_Clamp    
I-SOURCE     1.000E-09                        


**** VOLTAGE-CONTROLLED VOLTAGE SOURCES


NAME         X_U2.Evlim  X_U2.Emult  X_U2.Edemout            X_U2.ER2  
V-SOURCE     2.459E+00   2.459E+00   2.459E+00               5.000E+00
I-SOURCE    -2.459E-06  -2.459E+00  -2.459E-06              -5.000E-05

NAME         X_U2.ER1    X_U2.Eosclg             X_U2.Etrngl           
V-SOURCE     2.459E+00   1.040E+00               5.352E-18            
I-SOURCE    -2.459E-04  -1.040E-09              -5.352E-24            

NAME         X_U2.Esqr   X_U2.Evcoout            X_U2.Eoff   X_U3.Evlim
V-SOURCE    -5.352E-11   1.000E-01               1.000E+00   2.150E-03
I-SOURCE     5.352E-22   4.700E-12              -1.000E-06  -2.150E-09

NAME         X_U3.Emult  X_U3.Edemout            X_U3.ER2    X_U3.ER1  
V-SOURCE     2.150E-03   2.150E-03               5.000E+00   2.150E-03
I-SOURCE    -2.150E-03  -2.171E-07              -5.000E-05  -2.150E-07

NAME         X_U3.Eosclg             X_U3.Etrngl             X_U3.Esqr 
V-SOURCE     1.040E+00               5.352E-18              -5.352E-11
I-SOURCE    -1.040E-09              -5.352E-24               5.352E-22

NAME         X_U3.Evcoout            X_U3.Eoff   X_U5.egnd 
V-SOURCE     1.000E-01               1.000E+00   0.000E+00
I-SOURCE     4.700E-12              -1.000E-06  -1.244E-07


**** CURRENT-CONTROLLED CURRENT SOURCES


NAME         X_U5.fb   
I-SOURCE    -6.403E-04


**** CURRENT-CONTROLLED VOLTAGE SOURCES


NAME         X_U5.hlim 
V-SOURCE     7.818E-05
I-SOURCE    -1.564E-16


**** DIODES


NAME         X_U2.Dsqr1  X_U2.Dsqr2  X_U2.Dzener             X_U3.Dsqr1
MODEL        X_U2.Diode  X_U2.Diode  X_U2.znr                X_U3.Diode
ID          -1.00E-05   -1.00E-05    9.21E-24               -1.00E-05 
VD          -1.00E+01   -1.00E+01    2.61E-16               -1.00E+01 
REQ          1.00E+12    1.00E+12    2.87E+07                1.00E+12 
CAP          2.41E-14    2.41E-14    1.60E-10                2.41E-14 

NAME         X_U3.Dsqr2  X_U3.Dzener             X_U5.dc     X_U5.de   
MODEL        X_U3.Diode  X_U3.znr                X_U5.dy     X_U5.dy   
ID          -1.00E-05    9.21E-24               -1.39E-11   -1.41E-11 
VD          -1.00E+01    2.61E-16               -1.39E+01   -1.41E+01 
REQ          1.00E+12    2.87E+07                1.00E+12    1.00E+12 
CAP          2.41E-14    1.60E-10                2.59E-12    2.58E-12 

NAME         X_U5.dlp    X_U5.dln    X_U5.dp   
MODEL        X_U5.dx     X_U5.dx     X_U5.dx   
ID          -4.00E-11   -4.00E-11   -3.00E-11 
VD          -4.00E+01   -4.00E+01   -3.00E+01 
REQ          1.00E+12    1.00E+12    1.00E+12 
CAP          0.00E+00    0.00E+00    0.00E+00 


**** BIPOLAR JUNCTION TRANSISTORS


NAME         X_U5.q1     X_U5.q2   
MODEL        X_U5.qx     X_U5.qx   
IB           7.98E-08    7.97E-08 
IC           7.48E-06    7.48E-06 
VBE          5.94E-01    5.94E-01 
VBC         -1.50E+01   -1.50E+01 
VCE          1.56E+01    1.56E+01 
BETADC       9.38E+01    9.38E+01 
GM           2.89E-04    2.89E-04 
RPI          3.24E+05    3.24E+05 
RX           0.00E+00    0.00E+00 
RO           1.00E+12    1.00E+12 
CBE          0.00E+00    0.00E+00 
CBC          0.00E+00    0.00E+00 
CJS          0.00E+00    0.00E+00 
BETAAC       9.38E+01    9.38E+01 
CBX/CBX2     0.00E+00    0.00E+00 
FT/FT2       4.60E+15    4.60E+15 




**** VOLTAGE CONTROLLED SWITCHES


NAME         X_U2.ST2    X_U2.SB2    X_U3.ST2    X_U3.SB2  
MODEL        X_U2.swt    X_U2.swt    X_U3.swt    X_U3.swt  
I LOAD       1.25E-09    1.25E-09    1.25E-09    1.25E-09 
V LOAD       2.50E+00    2.50E+00    2.50E+00    2.50E+00 
R LOAD       2.00E+09    2.00E+09    2.00E+09    2.00E+09 
V CTRL       2.22E-03    2.22E-03    2.22E-03    2.22E-03 
**** 06/06/16 20:51:10 ********* PSpice 9.2 (Mar 2000) ******** ID# 0 ********

 * E:\2-1\EEE 210\Schematics\main.sch


 ****     INITIAL TRANSIENT SOLUTION       TEMPERATURE =   27.000 DEG C


******************************************************************************



 NODE   VOLTAGE     NODE   VOLTAGE     NODE   VOLTAGE     NODE   VOLTAGE


(X_U5.6)-6.043E-06 (X_U5.7)     .0641 (X_U5.8)     .0641 (X_U5.9)    0.0000     

($G_DGND)    0.0000                   ($G_DPWR)    5.0000                       

($N_0001)    2.4590                   ($N_0002)    5.0000                       

($N_0003)    2.4590                   ($N_0004) 5.352E-18                       

($N_0005)    0.0000                   ($N_0006)    0.0000                       

($N_0007)    1.2500                   ($N_0008)    1.2500                       

($N_0009)-261.2E-18                   ($N_0010)    5.0000                       

($N_0013)    2.5000                   ($N_0015)    2.4590                       

($N_0016)     .0022                   ($N_0017)    5.0000                       

($N_0018) 5.352E-18                   ($N_0019)    0.0000                       

($N_0020)     .0022                   ($N_0021)     .0022                       

($N_0022)     .0022                   ($N_0023)     .0022                       

($N_0024)    5.0000                   ($N_0025)    -.0016                       

($N_0026)    -.0016                   ($N_0027)  -15.0000                       

($N_0028)   15.0000                   ($N_0030)-261.2E-18                       

($N_0032)    2.5000                   ($N_0033)     .0641                       

(X_U2.13)   10.0000                   (X_U2.14)  -10.0000                       

(X_U2.s1)     .0022                   (X_U2.s2)     .0022                       

(X_U3.13)   10.0000                   (X_U3.14)  -10.0000                       

(X_U3.s1)     .0022                   (X_U3.s2)     .0022                       

(X_U5.10)    -.6093                   (X_U5.11)   14.9600                       

(X_U5.12)   14.9600                   (X_U5.13)    -.5954                       

(X_U5.14)    -.5954                   (X_U5.53)   14.0000                       

(X_U5.54)  -14.0000                   (X_U5.90) 78.18E-06                       

(X_U5.91)   40.0000                   (X_U5.92)  -40.0000                       

(X_U5.99)    0.0000                   (X_U2.adj)    1.0400                      

(X_U2.ir1)    2.4590                  (X_U2.ir2)    5.0000                      

(X_U2.mix)    2.4590                  (X_U2.off)    1.0000                      

(X_U2.sqr)-53.52E-12                  (X_U3.adj)    1.0400                      

(X_U3.ir1)     .0022                  (X_U3.ir2)    5.0000                      

(X_U3.mix)     .0022                  (X_U3.off)    1.0000                      

(X_U3.sqr)-53.52E-12                  (X_U2.vlim)    2.4590                     

(X_U3.vlim)     .0022                 (X_U2.sqrrc) 601.8E-27                    

(X_U2.trngl) 5.352E-18                (X_U3.sqrrc) 2.136E-24                    

(X_U3.trngl) 5.352E-18                (X_U2.vcosqr)     .1000                   

(X_U3.vcosqr)     .1000               (X$$N_0021_DtoA1.DGND_OL)     .0022       

(X$$N_0021_DtoA1.DPWR_OH)    4.9975   (X$X_U2.s1_DtoA1.DGND_OL)     .0022       

(X$X_U2.s1_DtoA1.DPWR_OH)    4.9975   (X$X_U2.s2_DtoA1.DGND_OL)     .0022       

(X$X_U2.s2_DtoA1.DPWR_OH)    4.9975   (X$X_U3.s1_DtoA1.DGND_OL)     .0022       

(X$X_U3.s1_DtoA1.DPWR_OH)    4.9975   (X$X_U3.s2_DtoA1.DGND_OL)     .0022       

(X$X_U3.s2_DtoA1.DPWR_OH)    4.9975   



 DGTL NODE : STATE  DGTL NODE : STATE  DGTL NODE : STATE  DGTL NODE : STATE


(X_U3.vcosqr$AtoD) : 0                (X_U2.icompin) : X                        

(X_U2.s2$DtoA) : 0                    ($N_0021$DtoA) : 0                        

(X_U2.xorout) : X  (X_U2.fq1) : 0     (X_U2.od2) : 0     ( X_U2.q1) : 0         

(X_U2.qb2) : 1     ( X_U2.q2) : 0     (X_U3.clk1) : 0    (X_U2.s1$DtoA) : 0     

(   $D_HI) : 1     (X_U3.norout) : 1  (X_U2.clk2) : X    ( $N_0031) : 1         

(X_U2.vcosqr$AtoD) : 0                ($N_0007$AtoD) : X                        

(X_U3.xorout) : 0  (X_U3.od1) : 0     (X_U2.fq2) : 0     (X_U2.clr) : 0         

(X_U3.qb1) : 1     (X_U3.od2) : 0     (X_U3.s2$DtoA) : 0                        

(X_U3.qb2) : 1     (X_U3.clk2) : 0    (X_U3.pclr) : 1    ( $N_0011) : 1         

(X_U3.icompin) : 1                    (X_U2.isigin) : X  ( $N_0012) : X         

(X_U2.reset) : 0   ($N_0008$AtoD) : X                    (X_U3.fq1) : 0         

(X_U3.s1$DtoA) : 0                    (X_U3.fq2) : 0     (X_U2.od1) : 0         

(X_U3.reset) : 0   (X_U2.pclr) : 1    (X_U3.clr) : 0     ( $N_0029) : 0         

(X_U2.qb1) : 1     (X_U3.isigin) : 1  ( X_U3.q1) : 0     (X_U2.clk1) : X        

( X_U3.q2) : 0     ( $N_0014) : 0     (X_U2.norout) : 1  




    VOLTAGE SOURCE CURRENTS
    NAME         CURRENT

    V_V3        -2.541E-04
    V_V2         0.000E+00
    V_V4        -1.250E-09
    V_V8        -1.667E-03
    V_V9        -1.667E-03
    X_U2.VR2     5.000E-05
    X_U2.VR1     2.459E-04
    X_U2.Vcext   5.352E-30
    X_U2.Vsqr1  -1.000E-05
    X_U2.Vsqr2   1.000E-05
    X_U3.VR2     5.000E-05
    X_U3.VR1     2.150E-07
    X_U3.Vcext   5.352E-30
    X_U3.Vsqr1  -1.000E-05
    X_U3.Vsqr2   1.000E-05
    X_U5.vb     -6.043E-11
    X_U5.vc      1.394E-11
    X_U5.ve      1.462E-11
    X_U5.vlim    7.818E-08
    X_U5.vlp    -4.000E-11
    X_U5.vln    -4.000E-11
    X$DIGIFPWR.VDPWR  -2.548E-04
    X$DIGIFPWR.VDGND  -5.007E-06

    TOTAL POWER DISSIPATION   5.30E-02  WATTS


**** 06/06/16 20:51:10 ********* PSpice 9.2 (Mar 2000) ******** ID# 0 ********

 * E:\2-1\EEE 210\Schematics\main.sch


 ****     SIMULATION ERRORS


******************************************************************************




DIGITAL Message ID#1 (WARNING):
AMBIGUITY CONVERGENCE Hazard at time 49.7ns
  Device: X_U3.U2
  NODEs: X_U3.isigin (IN1),
         X_U3.icompin (IN2) => X_U3.xorout (OUT1)  

DIGITAL Message ID#2 (SERIOUS):
PERSISTENT Hazard at time 49.7ns
  On D/A Node "$N_0021$DtoA"
  See Message ID#1 for probable cause.

DIGITAL Message ID#3 (SERIOUS):
PERSISTENT Hazard at time 49.7ns
  Device: On D/A interface X$$N_0021_DtoA1.N1, "$N_0021$DtoA"
  See Message ID#1 for probable cause.


          JOB CONCLUDED

          TOTAL JOB TIME            6.92
